Circuit: * C:\Users\Jorge\Desktop\current_driver\current_driver_CLoop.asc

Direct Newton iteration failed to find .op point.  (Use ".option noopiter" to skip.)
Starting Gmin stepping
Increasing initial diagonal Gmin to 100
Gmin = 100
Gmin = 10.7374
Gmin = 1.15292
vernier = 0.5
vernier = 0.25
vernier = 0.125
vernier = 0.0625
Gmin = 1.05222
vernier = 0.03125
vernier = 0.015625
vernier = 0.0078125
Gmin = 1.02002
vernier = 0.00390625
Gmin = 1.00913
vernier = 0.00195313
vernier = 0.00260417
vernier = 0.00130208
Gmin = 1.00699
vernier = 0.00173611
vernier = 0.000868055
vernier = 0.000434028
Gmin = 1.00557
Gmin = 0
Gmin stepping failed

Starting source stepping with srcstepmethod=0
Source Step = 3.0303%
Source Step = 33.3333%
Source Step = 56.0606%
Source Step = 56.7116%
Source Step = 56.83%
Source Step = 56.9484%
Source Step = 57.0668%
Source Step = 57.1851%
vernier = 0.00585938
Source Step = 57.3153%
Source Step = 57.4929%
Source Step = 57.6705%
Source Step = 57.848%
Source Step = 58.0256%
vernier = 0.00878906
Source Step = 58.212%
Source Step = 58.4783%
Source Step = 58.7447%
Source Step = 59.011%
Source Step = 59.2773%
Source Step = 59.5437%
vernier = 0.0131836
Source Step = 59.9432%
Source Step = 60.3427%
Source Step = 60.7422%
Source Step = 61.1417%
Source Step = 61.5412%
vernier = 0.0197754
Source Step = 62.1205%
Source Step = 62.7197%
Source Step = 63.319%
Source Step = 63.9182%
Source Step = 64.5175%
vernier = 0.0296631
Source Step = 65.3564%
Source Step = 66.2553%
Source Step = 67.1542%
Source Step = 68.0531%
Source Step = 68.952%
vernier = 0.0444946
Source Step = 70.1655%
Source Step = 71.5138%
Source Step = 72.8621%
Source Step = 74.2104%
Source Step = 75.5587%
vernier = 0.0667419
Source Step = 77.3116%
Source Step = 79.3341%
Source Step = 81.3565%
Source Step = 83.379%
Source Step = 85.4015%
vernier = 0.0166855
Source Step = 85.2245%
Starting source stepping with srcstepmethod=1
Source Step = 3.0303%
vernier = 0.25
Source Step = 0.378788%
Source Step = 0.852273%
Source Step = 1.32576%
Source Step = 1.79924%
Source Step = 2.27273%
vernier = 0.0234375
Source Step = 2.91193%
Source Step = 3.62216%
Source Step = 4.33239%
Source Step = 5.04261%
Source Step = 5.75284%
vernier = 0.0351563
Source Step = 6.67614%
Source Step = 7.74148%
Source Step = 8.80682%
Source Step = 9.87216%
Source Step = 10.9375%
vernier = 0.0527344
Source Step = 12.2692%
Source Step = 13.8672%
Source Step = 15.4652%
Source Step = 17.0632%
Source Step = 18.6612%
vernier = 0.0791016
Source Step = 20.5788%
Source Step = 22.9759%
Source Step = 25.3729%
Source Step = 27.7699%
Source Step = 30.1669%
vernier = 0.118652
Source Step = 32.9235%
Source Step = 36.519%
Source Step = 40.1145%
Source Step = 43.71%
Source Step = 47.3056%
vernier = 0.177979
Source Step = 51.2607%
Source Step = 56.6539%
Source Step = 62.0472%
Source Step = 67.4405%
Source Step = 72.8338%
vernier = 0.266968
Source Step = 78.4968%
Source Step = 86.5867%
Source Step = 93.2609%
Source Step = 93.5769%
Source stepping failed

Pseudo Transient succeeded in finding the operating point at 2.0934 s.

Date: Wed Dec 05 12:24:07 2018
Total elapsed time: 4.676 seconds.

tnom = 27
temp = 27
method = trap
totiter = 20931
traniter = 0
tranpoints = 0
accept = 0
rejected = 154
matrix size = 387
fillins = 883
solver = Normal
Matrix Compiler1:    3868 opcodes  14.3/[6.8]/7.6
Matrix Compiler2: 50.31 KB object code size  7.6/8.0/[2.6]

