Circuit: * C:\Users\Jorge\Desktop\current_driver\current_driver_OLoop.asc

Direct Newton iteration failed to find .op point.  (Use ".option noopiter" to skip.)
Starting Gmin stepping
Increasing initial diagonal Gmin to 100
Gmin = 100
Gmin = 10.7374
Gmin = 1.15292
vernier = 0.5
vernier = 0.25
vernier = 0.125
vernier = 0.0625
Gmin = 1.05222
vernier = 0.03125
vernier = 0.015625
vernier = 0.0078125
Gmin = 1.02002
vernier = 0.00390625
Gmin = 1.00913
vernier = 0.00195313
vernier = 0.00260417
vernier = 0.00130208
Gmin = 1.00699
vernier = 0.00173611
vernier = 0.000868055
vernier = 0.000434028
Gmin = 1.00557
Gmin = 0
Gmin stepping failed

Starting source stepping with srcstepmethod=0
Source Step = 3.0303%
Source Step = 33.3333%
Source Step = 63.6364%
Source Step = 72.7332%
Source Step = 72.7628%
Source Step = 72.7924%
Source Step = 72.822%
Source Step = 72.8516%
Source Step = 72.8812%
vernier = 0.00146484
Source Step = 72.9196%
Source Step = 72.964%
Source Step = 73.0084%
Source Step = 73.0528%
Source Step = 73.0972%
vernier = 0.00219727
Source Step = 73.1527%
Source Step = 73.2193%
Source Step = 73.2858%
Source Step = 73.3524%
Source Step = 73.419%
vernier = 0.0032959
Source Step = 73.4989%
Source Step = 73.5988%
Source Step = 73.6987%
Source Step = 73.7985%
Source Step = 73.8984%
vernier = 0.00494385
Source Step = 74.0133%
Source Step = 74.1631%
Source Step = 74.3129%
Source Step = 74.4627%
Source Step = 74.6125%
vernier = 0.00741577
Source Step = 74.7773%
Source Step = 75.002%
Source Step = 75.2268%
Source Step = 75.4515%
Source Step = 75.6762%
vernier = 0.0111237
Source Step = 75.9122%
Source Step = 76.2492%
Source Step = 76.5863%
Source Step = 76.9234%
Source Step = 77.2605%
Source Step = 77.5976%
vernier = 0.0166855
Source Step = 77.7082%
Source Step = 77.7398%
Source Step = 77.7714%
Source Step = 77.803%
Source Step = 77.8346%
Source Step = 77.8662%
vernier = 0.00156426
Source Step = 77.9088%
Source Step = 77.9562%
Source Step = 78.0036%
Source Step = 78.051%
Source Step = 78.0984%
vernier = 0.0023464
Source Step = 78.1601%
Source Step = 78.2312%
Source Step = 78.3023%
Source Step = 78.3734%
Source Step = 78.4445%
vernier = 0.00351959
Source Step = 78.5333%
Source Step = 78.64%
Source Step = 78.7467%
Source Step = 78.8533%
Source Step = 78.96%
vernier = 0.00527939
Source Step = 79.088%
Source Step = 79.2479%
Source Step = 79.4079%
Source Step = 79.5679%
Source Step = 79.7279%
vernier = 0.00791909
Source Step = 79.9119%
Source Step = 80.1518%
Source Step = 80.3918%
Source Step = 80.6318%
Source Step = 80.8717%
vernier = 0.0118786
Source Step = 81.1357%
Source Step = 81.4957%
Source Step = 81.8556%
Source Step = 82.2156%
Source Step = 82.5755%
vernier = 0.0178179
Source Step = 82.9535%
Source Step = 83.4934%
Source Step = 84.0334%
Source Step = 84.5733%
Source Step = 85.1133%
Source Step = 85.6532%
vernier = 0.0267269
Source Step = 86.4631%
Source Step = 87.273%
Source Step = 88.0829%
Source Step = 88.8928%
Source Step = 89.7027%
vernier = 0.0400904
Source Step = 90.1785%
Source Step = 90.2545%
Source Step = 90.3304%
Source Step = 90.4063%
Source Step = 90.4823%
Source Step = 90.5582%
Source Step = 90.6341%
Source Step = 90.71%
Source Step = 90.786%
Source Step = 90.8619%
Source Step = 90.9378%
Source Step = 91.0138%
Source stepping aborted.
Starting source stepping with srcstepmethod=1
Source Step = 3.0303%
vernier = 0.25
Source Step = 0.378788%
Source Step = 0.852273%
Source Step = 1.32576%
Source Step = 1.79924%
Source Step = 2.27273%
vernier = 0.0234375
Source Step = 2.91193%
Source Step = 3.62216%
Source Step = 4.33239%
Source Step = 5.04261%
Source Step = 5.75284%
vernier = 0.0351563
Source Step = 6.67614%
Source Step = 7.74148%
Source Step = 8.80682%
Source Step = 9.87216%
Source Step = 10.9375%
vernier = 0.0527344
Source Step = 12.2692%
Source Step = 13.8672%
Source Step = 15.4652%
Source Step = 17.0632%
Source Step = 18.6612%
vernier = 0.0791016
Source Step = 20.5788%
Source Step = 22.9759%
Source Step = 25.3729%
Source Step = 27.7699%
Source Step = 30.1669%
vernier = 0.118652
Source Step = 32.9235%
Source Step = 36.519%
Source Step = 40.1145%
Source Step = 43.71%
Source Step = 47.3056%
vernier = 0.177979
Source Step = 51.2607%
Source Step = 56.6539%
Source Step = 62.0472%
Source Step = 67.4405%
Source Step = 72.8338%
vernier = 0.266968
Source Step = 78.4968%
Source Step = 86.5867%
Source Step = 92.3002%
vernier = 0.00417137
Source stepping failed

Pseudo Transient succeeded in finding the operating point at 2.33348 s.

Date: Tue Dec 04 15:15:21 2018
Total elapsed time: 5.405 seconds.

tnom = 27
temp = 27
method = trap
totiter = 31775
traniter = 0
tranpoints = 0
accept = 0
rejected = 80
matrix size = 341
fillins = 746
solver = Normal
Matrix Compiler1:    3255 opcodes  11.7/[4.8]/5.7
Matrix Compiler2: 44.10 KB object code size  6.2/6.8/[2.7]

