Circuit: * C:\Users\Jorge\Desktop\current_driver\current_driver_time.asc

Direct Newton iteration failed to find .op point.  (Use ".option noopiter" to skip.)
Starting Gmin stepping
Increasing initial diagonal Gmin to 100
Gmin = 100
Gmin = 10.7374
Gmin = 1.15292
vernier = 0.5
vernier = 0.25
vernier = 0.125
vernier = 0.0625
Gmin = 1.05222
vernier = 0.03125
vernier = 0.015625
vernier = 0.0078125
Gmin = 1.02002
vernier = 0.00390625
Gmin = 1.00913
vernier = 0.00195313
vernier = 0.00260417
vernier = 0.00130208
Gmin = 1.00699
vernier = 0.00173611
vernier = 0.000868055
vernier = 0.000434028
Gmin = 1.00557
Gmin = 0
Gmin stepping failed

Starting source stepping with srcstepmethod=0
Source Step = 3.0303%
Source Step = 33.3333%
Source Step = 63.6364%
Source Step = 81.8182%
Source Step = 89.3939%
Source Step = 96.9697%
Source stepping succeeded in finding the operating point.


Date: Wed Dec 05 12:15:07 2018
Total elapsed time: 6.840 seconds.

tnom = 27
temp = 27
method = modified trap
totiter = 84972
traniter = 80684
tranpoints = 40129
accept = 40100
rejected = 29
matrix size = 341
fillins = 832
solver = Normal
Thread vector: 22.0/10.7[4] 6.2/3.9[4] 6.3/2.8[4] 1.6/3.8[1]  2592/500
Matrix Compiler1: 70.04 KB object code size  13.7/6.6/[3.0]
Matrix Compiler2: 45.47 KB object code size  7.4/7.0/[3.6]

