Circuit: * C:\Users\Jorge\Desktop\current_driver\Draft3.asc

Direct Newton iteration for .op point succeeded.

Date: Wed Dec 05 09:52:49 2018
Total elapsed time: 0.036 seconds.

tnom = 27
temp = 27
method = trap
totiter = 26
traniter = 0
tranpoints = 0
accept = 0
rejected = 0
matrix size = 52
fillins = 36
solver = Normal
Matrix Compiler1:     216 opcodes
Matrix Compiler2: 4.71 KB object code size
